MODEL 1
REMARK VINA RESULT:    -5.424      0.000      0.000
REMARK INTER + INTRA:          -6.616
REMARK INTER:                  -6.534
REMARK INTRA:                  -0.082
REMARK UNBOUND:                -0.082
REMARK SMILES NCCc1ccc(O)c(O)c1
REMARK SMILES IDX 3 1 4 2 11 3 5 4 9 5 6 6 7 7 10 8 8 10 2 12 1 13
REMARK H PARENT 10 9 8 11 1 14 1 15
REMARK Flexibility Score: inf
ROOT
ATOM      1  C   UNL     1       4.142  -2.526  14.181  1.00  0.00     0.050 C 
ENDROOT
BRANCH   1   2
ATOM      2  C   UNL     1       5.645  -2.464  14.096  1.00  0.00    -0.043 A 
ATOM      3  C   UNL     1       6.260  -2.339  12.866  1.00  0.00     0.054 A 
ATOM      4  C   UNL     1       6.405  -2.537  15.248  1.00  0.00     0.008 A 
ATOM      5  C   UNL     1       7.642  -2.277  12.785  1.00  0.00     0.157 A 
ATOM      6  C   UNL     1       7.783  -2.482  15.176  1.00  0.00     0.050 A 
ATOM      7  C   UNL     1       8.407  -2.351  13.945  1.00  0.00     0.157 A 
BRANCH   5   8
ATOM      8  O   UNL     1       8.250  -2.150  11.576  1.00  0.00    -0.504 OA
ATOM      9  H   UNL     1       7.754  -1.483  11.082  1.00  0.00     0.293 HD
ENDBRANCH   5   8
BRANCH   7  10
ATOM     10  O   UNL     1       9.764  -2.297  13.870  1.00  0.00    -0.504 OA
ATOM     11  H   UNL     1      10.104  -2.613  14.717  1.00  0.00     0.293 HD
ENDBRANCH   7  10
ENDBRANCH   1   2
BRANCH   1  12
ATOM     12  C   UNL     1       3.710  -3.941  14.569  1.00  0.00     0.082 C 
BRANCH  12  13
ATOM     13  N   UNL     1       2.797  -3.879  15.717  1.00  0.00    -0.330 NA
ATOM     14  H   UNL     1       1.901  -4.211  15.395  1.00  0.00     0.118 HD
ATOM     15  H   UNL     1       3.130  -4.554  16.389  1.00  0.00     0.118 HD
ENDBRANCH  12  13
ENDBRANCH   1  12
TORSDOF 5
ENDMDL
MODEL 2
REMARK VINA RESULT:    -5.350      0.781      2.015
REMARK INTER + INTRA:          -6.527
REMARK INTER:                  -6.472
REMARK INTRA:                  -0.055
REMARK UNBOUND:                -0.082
REMARK SMILES NCCc1ccc(O)c(O)c1
REMARK SMILES IDX 3 1 4 2 11 3 5 4 9 5 6 6 7 7 10 8 8 10 2 12 1 13
REMARK H PARENT 10 9 8 11 1 14 1 15
REMARK Flexibility Score: inf
ROOT
ATOM      1  C   UNL     1       4.464  -2.483  15.006  1.00  0.00     0.050 C 
ENDROOT
BRANCH   1   2
ATOM      2  C   UNL     1       5.575  -2.293  14.007  1.00  0.00    -0.043 A 
ATOM      3  C   UNL     1       6.875  -2.601  14.356  1.00  0.00     0.054 A 
ATOM      4  C   UNL     1       5.293  -1.805  12.745  1.00  0.00     0.008 A 
ATOM      5  C   UNL     1       7.899  -2.432  13.438  1.00  0.00     0.157 A 
ATOM      6  C   UNL     1       6.309  -1.628  11.825  1.00  0.00     0.050 A 
ATOM      7  C   UNL     1       7.615  -1.941  12.168  1.00  0.00     0.157 A 
BRANCH   5   8
ATOM      8  O   UNL     1       9.179  -2.739  13.779  1.00  0.00    -0.504 OA
ATOM      9  H   UNL     1       9.524  -3.314  13.084  1.00  0.00     0.293 HD
ENDBRANCH   5   8
BRANCH   7  10
ATOM     10  O   UNL     1       8.617  -1.766  11.265  1.00  0.00    -0.504 OA
ATOM     11  H   UNL     1       8.505  -0.884  10.889  1.00  0.00     0.293 HD
ENDBRANCH   7  10
ENDBRANCH   1   2
BRANCH   1  12
ATOM     12  C   UNL     1       3.645  -3.719  14.629  1.00  0.00     0.082 C 
BRANCH  12  13
ATOM     13  N   UNL     1       2.743  -4.065  15.734  1.00  0.00    -0.330 NA
ATOM     14  H   UNL     1       2.387  -3.197  16.104  1.00  0.00     0.118 HD
ATOM     15  H   UNL     1       1.956  -4.549  15.327  1.00  0.00     0.118 HD
ENDBRANCH  12  13
ENDBRANCH   1  12
TORSDOF 5
ENDMDL
MODEL 3
REMARK VINA RESULT:    -5.329      3.428      4.618
REMARK INTER + INTRA:          -6.501
REMARK INTER:                  -6.447
REMARK INTRA:                  -0.054
REMARK UNBOUND:                -0.082
REMARK SMILES NCCc1ccc(O)c(O)c1
REMARK SMILES IDX 3 1 4 2 11 3 5 4 9 5 6 6 7 7 10 8 8 10 2 12 1 13
REMARK H PARENT 10 9 8 11 1 14 1 15
REMARK Flexibility Score: inf
ROOT
ATOM      1  C   UNL     1       8.341  -2.308  14.168  1.00  0.00     0.050 C 
ENDROOT
BRANCH   1   2
ATOM      2  C   UNL     1       7.071  -2.217  13.363  1.00  0.00    -0.043 A 
ATOM      3  C   UNL     1       5.870  -2.601  13.926  1.00  0.00     0.054 A 
ATOM      4  C   UNL     1       7.111  -1.753  12.062  1.00  0.00     0.008 A 
ATOM      5  C   UNL     1       4.700  -2.513  13.190  1.00  0.00     0.157 A 
ATOM      6  C   UNL     1       5.949  -1.667  11.319  1.00  0.00     0.050 A 
ATOM      7  C   UNL     1       4.740  -2.047  11.880  1.00  0.00     0.157 A 
BRANCH   5   8
ATOM      8  O   UNL     1       3.516  -2.888  13.744  1.00  0.00    -0.504 OA
ATOM      9  H   UNL     1       3.636  -3.785  14.082  1.00  0.00     0.293 HD
ENDBRANCH   5   8
BRANCH   7  10
ATOM     10  O   UNL     1       3.594  -1.965  11.151  1.00  0.00    -0.504 OA
ATOM     11  H   UNL     1       3.843  -1.652  10.273  1.00  0.00     0.293 HD
ENDBRANCH   7  10
ENDBRANCH   1   2
BRANCH   1  12
ATOM     12  C   UNL     1       8.812  -3.763  14.216  1.00  0.00     0.082 C 
BRANCH  12  13
ATOM     13  N   UNL     1      10.235  -3.806  14.574  1.00  0.00    -0.330 NA
ATOM     14  H   UNL     1      10.755  -3.635  13.727  1.00  0.00     0.118 HD
ATOM     15  H   UNL     1      10.406  -3.018  15.181  1.00  0.00     0.118 HD
ENDBRANCH  12  13
ENDBRANCH   1  12
TORSDOF 5
ENDMDL
MODEL 4
REMARK VINA RESULT:    -5.195      2.305      2.999
REMARK INTER + INTRA:          -6.340
REMARK INTER:                  -6.265
REMARK INTRA:                  -0.075
REMARK UNBOUND:                -0.082
REMARK SMILES NCCc1ccc(O)c(O)c1
REMARK SMILES IDX 3 1 4 2 11 3 5 4 9 5 6 6 7 7 10 8 8 10 2 12 1 13
REMARK H PARENT 10 9 8 11 1 14 1 15
REMARK Flexibility Score: inf
ROOT
ATOM      1  C   UNL     1       5.936  -1.394  11.515  1.00  0.00     0.050 C 
ENDROOT
BRANCH   1   2
ATOM      2  C   UNL     1       6.389  -2.129  12.749  1.00  0.00    -0.043 A 
ATOM      3  C   UNL     1       7.616  -2.762  12.762  1.00  0.00     0.054 A 
ATOM      4  C   UNL     1       5.574  -2.171  13.865  1.00  0.00     0.008 A 
ATOM      5  C   UNL     1       8.037  -3.435  13.898  1.00  0.00     0.157 A 
ATOM      6  C   UNL     1       5.984  -2.844  14.999  1.00  0.00     0.050 A 
ATOM      7  C   UNL     1       7.216  -3.478  15.021  1.00  0.00     0.157 A 
BRANCH   5   8
ATOM      8  O   UNL     1       9.247  -4.056  13.914  1.00  0.00    -0.504 OA
ATOM      9  H   UNL     1       9.569  -4.065  13.003  1.00  0.00     0.293 HD
ENDBRANCH   5   8
BRANCH   7  10
ATOM     10  O   UNL     1       7.622  -4.143  16.136  1.00  0.00    -0.504 OA
ATOM     11  H   UNL     1       7.089  -3.811  16.869  1.00  0.00     0.293 HD
ENDBRANCH   7  10
ENDBRANCH   1   2
BRANCH   1  12
ATOM     12  C   UNL     1       4.661  -2.042  10.973  1.00  0.00     0.082 C 
BRANCH  12  13
ATOM     13  N   UNL     1       3.539  -1.106  11.109  1.00  0.00    -0.330 NA
ATOM     14  H   UNL     1       2.760  -1.637  11.470  1.00  0.00     0.118 HD
ATOM     15  H   UNL     1       3.796  -0.447  11.828  1.00  0.00     0.118 HD
ENDBRANCH  12  13
ENDBRANCH   1  12
TORSDOF 5
ENDMDL
MODEL 5
REMARK VINA RESULT:    -5.177      2.492      3.679
REMARK INTER + INTRA:          -6.319
REMARK INTER:                  -6.244
REMARK INTRA:                  -0.075
REMARK UNBOUND:                -0.082
REMARK SMILES NCCc1ccc(O)c(O)c1
REMARK SMILES IDX 3 1 4 2 11 3 5 4 9 5 6 6 7 7 10 8 8 10 2 12 1 13
REMARK H PARENT 10 9 8 11 1 14 1 15
REMARK Flexibility Score: inf
ROOT
ATOM      1  C   UNL     1       7.624  -3.253  14.934  1.00  0.00     0.050 C 
ENDROOT
BRANCH   1   2
ATOM      2  C   UNL     1       6.520  -2.832  14.000  1.00  0.00    -0.043 A 
ATOM      3  C   UNL     1       6.818  -2.464  12.703  1.00  0.00     0.054 A 
ATOM      4  C   UNL     1       5.211  -2.811  14.444  1.00  0.00     0.008 A 
ATOM      5  C   UNL     1       5.803  -2.081  11.840  1.00  0.00     0.157 A 
ATOM      6  C   UNL     1       4.194  -2.425  13.592  1.00  0.00     0.050 A 
ATOM      7  C   UNL     1       4.486  -2.059  12.288  1.00  0.00     0.157 A 
BRANCH   5   8
ATOM      8  O   UNL     1       6.095  -1.721  10.562  1.00  0.00    -0.504 OA
ATOM      9  H   UNL     1       6.843  -1.113  10.606  1.00  0.00     0.293 HD
ENDBRANCH   5   8
BRANCH   7  10
ATOM     10  O   UNL     1       3.487  -1.677  11.446  1.00  0.00    -0.504 OA
ATOM     11  H   UNL     1       3.311  -2.426  10.864  1.00  0.00     0.293 HD
ENDBRANCH   7  10
ENDBRANCH   1   2
BRANCH   1  12
ATOM     12  C   UNL     1       7.613  -4.775  15.085  1.00  0.00     0.082 C 
BRANCH  12  13
ATOM     13  N   UNL     1       7.740  -5.128  16.504  1.00  0.00    -0.330 NA
ATOM     14  H   UNL     1       7.509  -6.107  16.582  1.00  0.00     0.118 HD
ATOM     15  H   UNL     1       8.718  -5.043  16.738  1.00  0.00     0.118 HD
ENDBRANCH  12  13
ENDBRANCH   1  12
TORSDOF 5
ENDMDL
MODEL 6
REMARK VINA RESULT:    -5.089      2.256      2.912
REMARK INTER + INTRA:          -6.213
REMARK INTER:                  -6.120
REMARK INTRA:                  -0.093
REMARK UNBOUND:                -0.082
REMARK SMILES NCCc1ccc(O)c(O)c1
REMARK SMILES IDX 3 1 4 2 11 3 5 4 9 5 6 6 7 7 10 8 8 10 2 12 1 13
REMARK H PARENT 10 9 8 11 1 14 1 15
REMARK Flexibility Score: inf
ROOT
ATOM      1  C   UNL     1       4.349  -2.415  13.079  1.00  0.00     0.050 C 
ENDROOT
BRANCH   1   2
ATOM      2  C   UNL     1       5.763  -2.634  13.549  1.00  0.00    -0.043 A 
ATOM      3  C   UNL     1       6.005  -3.404  14.670  1.00  0.00     0.054 A 
ATOM      4  C   UNL     1       6.816  -2.061  12.861  1.00  0.00     0.008 A 
ATOM      5  C   UNL     1       7.305  -3.611  15.102  1.00  0.00     0.157 A 
ATOM      6  C   UNL     1       8.115  -2.259  13.289  1.00  0.00     0.050 A 
ATOM      7  C   UNL     1       8.364  -3.033  14.410  1.00  0.00     0.157 A 
BRANCH   5   8
ATOM      8  O   UNL     1       7.545  -4.371  16.204  1.00  0.00    -0.504 OA
ATOM      9  H   UNL     1       7.999  -3.805  16.841  1.00  0.00     0.293 HD
ENDBRANCH   5   8
BRANCH   7  10
ATOM     10  O   UNL     1       9.642  -3.228  14.834  1.00  0.00    -0.504 OA
ATOM     11  H   UNL     1      10.217  -3.062  14.076  1.00  0.00     0.293 HD
ENDBRANCH   7  10
ENDBRANCH   1   2
BRANCH   1  12
ATOM     12  C   UNL     1       4.346  -2.161  11.571  1.00  0.00     0.082 C 
BRANCH  12  13
ATOM     13  N   UNL     1       3.429  -1.058  11.260  1.00  0.00    -0.330 NA
ATOM     14  H   UNL     1       3.883  -0.489  10.561  1.00  0.00     0.118 HD
ATOM     15  H   UNL     1       2.620  -1.469  10.817  1.00  0.00     0.118 HD
ENDBRANCH  12  13
ENDBRANCH   1  12
TORSDOF 5
ENDMDL
MODEL 7
REMARK VINA RESULT:    -5.089      3.638      5.006
REMARK INTER + INTRA:          -6.212
REMARK INTER:                  -6.133
REMARK INTRA:                  -0.079
REMARK UNBOUND:                -0.082
REMARK SMILES NCCc1ccc(O)c(O)c1
REMARK SMILES IDX 3 1 4 2 11 3 5 4 9 5 6 6 7 7 10 8 8 10 2 12 1 13
REMARK H PARENT 10 9 8 11 1 14 1 15
REMARK Flexibility Score: inf
ROOT
ATOM      1  C   UNL     1       8.226  -1.209  11.314  1.00  0.00     0.050 C 
ENDROOT
BRANCH   1   2
ATOM      2  C   UNL     1       6.960  -1.689  11.973  1.00  0.00    -0.043 A 
ATOM      3  C   UNL     1       7.023  -2.363  13.177  1.00  0.00     0.054 A 
ATOM      4  C   UNL     1       5.737  -1.458  11.370  1.00  0.00     0.008 A 
ATOM      5  C   UNL     1       5.859  -2.801  13.788  1.00  0.00     0.157 A 
ATOM      6  C   UNL     1       4.573  -1.896  11.971  1.00  0.00     0.050 A 
ATOM      7  C   UNL     1       4.629  -2.569  13.181  1.00  0.00     0.157 A 
BRANCH   5   8
ATOM      8  O   UNL     1       5.919  -3.461  14.975  1.00  0.00    -0.504 OA
ATOM      9  H   UNL     1       6.383  -4.292  14.810  1.00  0.00     0.293 HD
ENDBRANCH   5   8
BRANCH   7  10
ATOM     10  O   UNL     1       3.484  -3.003  13.774  1.00  0.00    -0.504 OA
ATOM     11  H   UNL     1       3.316  -3.893  13.440  1.00  0.00     0.293 HD
ENDBRANCH   7  10
ENDBRANCH   1   2
BRANCH   1  12
ATOM     12  C   UNL     1       9.263  -0.868  12.385  1.00  0.00     0.082 C 
BRANCH  12  13
ATOM     13  N   UNL     1       9.805   0.473  12.135  1.00  0.00    -0.330 NA
ATOM     14  H   UNL     1       9.142   1.131  12.515  1.00  0.00     0.118 HD
ATOM     15  H   UNL     1      10.644   0.556  12.690  1.00  0.00     0.118 HD
ENDBRANCH  12  13
ENDBRANCH   1  12
TORSDOF 5
ENDMDL
MODEL 8
REMARK VINA RESULT:    -4.759      3.124      3.753
REMARK INTER + INTRA:          -5.814
REMARK INTER:                  -5.748
REMARK INTRA:                  -0.067
REMARK UNBOUND:                -0.082
REMARK SMILES NCCc1ccc(O)c(O)c1
REMARK SMILES IDX 3 1 4 2 11 3 5 4 9 5 6 6 7 7 10 8 8 10 2 12 1 13
REMARK H PARENT 10 9 8 11 1 14 1 15
REMARK Flexibility Score: inf
ROOT
ATOM      1  C   UNL     1       6.174  -1.531  11.048  1.00  0.00     0.050 C 
ENDROOT
BRANCH   1   2
ATOM      2  C   UNL     1       6.480  -2.214  12.355  1.00  0.00    -0.043 A 
ATOM      3  C   UNL     1       5.527  -2.249  13.354  1.00  0.00     0.054 A 
ATOM      4  C   UNL     1       7.716  -2.801  12.554  1.00  0.00     0.008 A 
ATOM      5  C   UNL     1       5.805  -2.881  14.556  1.00  0.00     0.157 A 
ATOM      6  C   UNL     1       8.003  -3.428  13.752  1.00  0.00     0.050 A 
ATOM      7  C   UNL     1       7.049  -3.470  14.756  1.00  0.00     0.157 A 
BRANCH   5   8
ATOM      8  O   UNL     1       4.867  -2.919  15.539  1.00  0.00    -0.504 OA
ATOM      9  H   UNL     1       4.042  -3.209  15.128  1.00  0.00     0.293 HD
ENDBRANCH   5   8
BRANCH   7  10
ATOM     10  O   UNL     1       7.329  -4.086  15.936  1.00  0.00    -0.504 OA
ATOM     11  H   UNL     1       6.498  -4.150  16.423  1.00  0.00     0.293 HD
ENDBRANCH   7  10
ENDBRANCH   1   2
BRANCH   1  12
ATOM     12  C   UNL     1       4.740  -1.856  10.626  1.00  0.00     0.082 C 
BRANCH  12  13
ATOM     13  N   UNL     1       4.633  -1.793   9.163  1.00  0.00    -0.330 NA
ATOM     14  H   UNL     1       5.242  -2.508   8.795  1.00  0.00     0.118 HD
ATOM     15  H   UNL     1       3.691  -2.068   8.928  1.00  0.00     0.118 HD
ENDBRANCH  12  13
ENDBRANCH   1  12
TORSDOF 5
ENDMDL
MODEL 9
REMARK VINA RESULT:    -4.585      3.736      4.750
REMARK INTER + INTRA:          -5.605
REMARK INTER:                  -5.511
REMARK INTRA:                  -0.093
REMARK UNBOUND:                -0.082
REMARK SMILES NCCc1ccc(O)c(O)c1
REMARK SMILES IDX 3 1 4 2 11 3 5 4 9 5 6 6 7 7 10 8 8 10 2 12 1 13
REMARK H PARENT 10 9 8 11 1 14 1 15
REMARK Flexibility Score: inf
ROOT
ATOM      1  C   UNL     1       8.583  -1.090  11.918  1.00  0.00     0.050 C 
ENDROOT
BRANCH   1   2
ATOM      2  C   UNL     1       7.227  -1.600  12.333  1.00  0.00    -0.043 A 
ATOM      3  C   UNL     1       6.209  -1.683  11.405  1.00  0.00     0.054 A 
ATOM      4  C   UNL     1       7.004  -1.978  13.644  1.00  0.00     0.008 A 
ATOM      5  C   UNL     1       4.962  -2.156  11.783  1.00  0.00     0.157 A 
ATOM      6  C   UNL     1       5.763  -2.446  14.030  1.00  0.00     0.050 A 
ATOM      7  C   UNL     1       4.738  -2.536  13.102  1.00  0.00     0.157 A 
BRANCH   5   8
ATOM      8  O   UNL     1       3.959  -2.242  10.869  1.00  0.00    -0.504 OA
ATOM      9  H   UNL     1       4.151  -1.592  10.181  1.00  0.00     0.293 HD
ENDBRANCH   5   8
BRANCH   7  10
ATOM     10  O   UNL     1       3.514  -2.995  13.480  1.00  0.00    -0.504 OA
ATOM     11  H   UNL     1       3.004  -2.228  13.768  1.00  0.00     0.293 HD
ENDBRANCH   7  10
ENDBRANCH   1   2
BRANCH   1  12
ATOM     12  C   UNL     1       9.529  -1.120  13.119  1.00  0.00     0.082 C 
BRANCH  12  13
ATOM     13  N   UNL     1      10.292   0.133  13.174  1.00  0.00    -0.330 NA
ATOM     14  H   UNL     1       9.696   0.818  13.614  1.00  0.00     0.118 HD
ATOM     15  H   UNL     1      11.065  -0.024  13.803  1.00  0.00     0.118 HD
ENDBRANCH  12  13
ENDBRANCH   1  12
TORSDOF 5
ENDMDL
