MODEL 1
REMARK VINA RESULT:    -5.181      0.000      0.000
REMARK INTER + INTRA:          -8.009
REMARK INTER:                  -6.673
REMARK INTRA:                  -1.336
REMARK CONF_INDEPENDENT:        1.492
REMARK UNBOUND:                -1.336
REMARK SMILES NCCc1ccc(O)c(O)c1
REMARK SMILES IDX 3 1 4 2 11 3 5 4 9 5 6 6 7 7 10 8 8 10 2 12 1 13
REMARK H PARENT 10 9 8 11 1 14 1 15
REMARK Flexibility Score: inf
ROOT
ATOM      1  C   UNL     1       0.055   3.568   3.095  1.00  0.00     0.050 C 
ENDROOT
BRANCH   1   2
ATOM      2  C   UNL     1       1.103   4.412   2.419  1.00  0.00    -0.043 A 
ATOM      3  C   UNL     1       2.439   4.084   2.545  1.00  0.00     0.054 A 
ATOM      4  C   UNL     1       0.727   5.516   1.678  1.00  0.00     0.008 A 
ATOM      5  C   UNL     1       3.405   4.856   1.921  1.00  0.00     0.157 A 
ATOM      6  C   UNL     1       1.685   6.295   1.056  1.00  0.00     0.050 A 
ATOM      7  C   UNL     1       3.026   5.968   1.175  1.00  0.00     0.157 A 
BRANCH   5   8
ATOM      8  O   UNL     1       4.720   4.532   2.041  1.00  0.00    -0.504 OA
ATOM      9  H   UNL     1       5.194   5.027   1.360  1.00  0.00     0.293 HD
ENDBRANCH   5   8
BRANCH   7  10
ATOM     10  O   UNL     1       3.971   6.733   0.565  1.00  0.00    -0.504 OA
ATOM     11  H   UNL     1       4.794   6.228   0.581  1.00  0.00     0.293 HD
ENDBRANCH   7  10
ENDBRANCH   1   2
BRANCH   1  12
ATOM     12  C   UNL     1      -1.334   4.113   2.760  1.00  0.00     0.082 C 
BRANCH  12  13
ATOM     13  N   UNL     1      -1.942   3.294   1.704  1.00  0.00    -0.330 NA
ATOM     14  H   UNL     1      -1.269   3.239   0.954  1.00  0.00     0.118 HD
ATOM     15  H   UNL     1      -2.033   2.360   2.077  1.00  0.00     0.118 HD
ENDBRANCH  12  13
ENDBRANCH   1  12
TORSDOF 5
ENDMDL
MODEL 2
REMARK VINA RESULT:    -5.013      3.602      4.503
REMARK INTER + INTRA:          -7.857
REMARK INTER:                  -6.505
REMARK INTRA:                  -1.352
REMARK CONF_INDEPENDENT:        1.492
REMARK UNBOUND:                -1.352
REMARK SMILES NCCc1ccc(O)c(O)c1
REMARK SMILES IDX 3 1 4 2 11 3 5 4 9 5 6 6 7 7 10 8 8 10 2 12 1 13
REMARK H PARENT 10 9 8 11 1 14 1 15
REMARK Flexibility Score: inf
ROOT
ATOM      1  C   UNL     1       3.133   5.505   1.730  1.00  0.00     0.050 C 
ENDROOT
BRANCH   1   2
ATOM      2  C   UNL     1       1.682   5.137   1.897  1.00  0.00    -0.043 A 
ATOM      3  C   UNL     1       1.329   4.087   2.723  1.00  0.00     0.054 A 
ATOM      4  C   UNL     1       0.707   5.846   1.221  1.00  0.00     0.008 A 
ATOM      5  C   UNL     1      -0.006   3.749   2.882  1.00  0.00     0.157 A 
ATOM      6  C   UNL     1      -0.625   5.511   1.371  1.00  0.00     0.050 A 
ATOM      7  C   UNL     1      -0.986   4.462   2.201  1.00  0.00     0.157 A 
BRANCH   5   8
ATOM      8  O   UNL     1      -0.355   2.718   3.697  1.00  0.00    -0.504 OA
ATOM      9  H   UNL     1      -1.311   2.605   3.612  1.00  0.00     0.293 HD
ENDBRANCH   5   8
BRANCH   7  10
ATOM     10  O   UNL     1      -2.297   4.130   2.349  1.00  0.00    -0.504 OA
ATOM     11  H   UNL     1      -2.321   3.290   2.824  1.00  0.00     0.293 HD
ENDBRANCH   7  10
ENDBRANCH   1   2
BRANCH   1  12
ATOM     12  C   UNL     1       4.007   4.480   2.454  1.00  0.00     0.082 C 
BRANCH  12  13
ATOM     13  N   UNL     1       5.412   4.681   2.078  1.00  0.00    -0.330 NA
ATOM     14  H   UNL     1       5.609   4.034   1.329  1.00  0.00     0.118 HD
ATOM     15  H   UNL     1       5.478   5.608   1.683  1.00  0.00     0.118 HD
ENDBRANCH  12  13
ENDBRANCH   1  12
TORSDOF 5
ENDMDL
MODEL 3
REMARK VINA RESULT:    -4.957      0.690      2.002
REMARK INTER + INTRA:          -7.767
REMARK INTER:                  -6.449
REMARK INTRA:                  -1.319
REMARK CONF_INDEPENDENT:        1.492
REMARK UNBOUND:                -1.319
REMARK SMILES NCCc1ccc(O)c(O)c1
REMARK SMILES IDX 3 1 4 2 11 3 5 4 9 5 6 6 7 7 10 8 8 10 2 12 1 13
REMARK H PARENT 10 9 8 11 1 14 1 15
REMARK Flexibility Score: inf
ROOT
ATOM      1  C   UNL     1      -0.662   5.192   1.584  1.00  0.00     0.050 C 
ENDROOT
BRANCH   1   2
ATOM      2  C   UNL     1       0.838   5.202   1.716  1.00  0.00    -0.043 A 
ATOM      3  C   UNL     1       1.601   5.956   0.846  1.00  0.00     0.054 A 
ATOM      4  C   UNL     1       1.449   4.453   2.705  1.00  0.00     0.008 A 
ATOM      5  C   UNL     1       2.982   5.970   0.969  1.00  0.00     0.157 A 
ATOM      6  C   UNL     1       2.825   4.458   2.830  1.00  0.00     0.050 A 
ATOM      7  C   UNL     1       3.596   5.216   1.963  1.00  0.00     0.157 A 
BRANCH   5   8
ATOM      8  O   UNL     1       3.734   6.714   0.115  1.00  0.00    -0.504 OA
ATOM      9  H   UNL     1       4.639   6.382   0.177  1.00  0.00     0.293 HD
ENDBRANCH   5   8
BRANCH   7  10
ATOM     10  O   UNL     1       4.951   5.222   2.083  1.00  0.00    -0.504 OA
ATOM     11  H   UNL     1       5.303   5.593   1.265  1.00  0.00     0.293 HD
ENDBRANCH   7  10
ENDBRANCH   1   2
BRANCH   1  12
ATOM     12  C   UNL     1      -1.257   4.196   2.581  1.00  0.00     0.082 C 
BRANCH  12  13
ATOM     13  N   UNL     1      -1.141   2.835   2.042  1.00  0.00    -0.330 NA
ATOM     14  H   UNL     1      -2.004   2.360   2.264  1.00  0.00     0.118 HD
ATOM     15  H   UNL     1      -1.110   2.922   1.037  1.00  0.00     0.118 HD
ENDBRANCH  12  13
ENDBRANCH   1  12
TORSDOF 5
ENDMDL
MODEL 4
REMARK VINA RESULT:    -4.595      3.479      4.705
REMARK INTER + INTRA:          -7.218
REMARK INTER:                  -6.086
REMARK INTRA:                  -1.131
REMARK CONF_INDEPENDENT:        1.492
REMARK UNBOUND:                -1.131
REMARK SMILES NCCc1ccc(O)c(O)c1
REMARK SMILES IDX 3 1 4 2 11 3 5 4 9 5 6 6 7 7 10 8 8 10 2 12 1 13
REMARK H PARENT 10 9 8 11 1 14 1 15
REMARK Flexibility Score: inf
ROOT
ATOM      1  C   UNL     1       3.783   5.812   1.856  1.00  0.00     0.050 C 
ENDROOT
BRANCH   1   2
ATOM      2  C   UNL     1       2.434   5.143   1.843  1.00  0.00    -0.043 A 
ATOM      3  C   UNL     1       1.522   5.451   0.852  1.00  0.00     0.054 A 
ATOM      4  C   UNL     1       2.108   4.225   2.824  1.00  0.00     0.008 A 
ATOM      5  C   UNL     1       0.282   4.834   0.835  1.00  0.00     0.157 A 
ATOM      6  C   UNL     1       0.872   3.610   2.817  1.00  0.00     0.050 A 
ATOM      7  C   UNL     1      -0.046   3.911   1.823  1.00  0.00     0.157 A 
BRANCH   5   8
ATOM      8  O   UNL     1      -0.616   5.134  -0.142  1.00  0.00    -0.504 OA
ATOM      9  H   UNL     1      -1.089   4.317  -0.347  1.00  0.00     0.293 HD
ENDBRANCH   5   8
BRANCH   7  10
ATOM     10  O   UNL     1      -1.265   3.307   1.814  1.00  0.00    -0.504 OA
ATOM     11  H   UNL     1      -1.581   3.330   0.903  1.00  0.00     0.293 HD
ENDBRANCH   7  10
ENDBRANCH   1   2
BRANCH   1  12
ATOM     12  C   UNL     1       4.710   5.072   2.822  1.00  0.00     0.082 C 
BRANCH  12  13
ATOM     13  N   UNL     1       5.839   4.499   2.079  1.00  0.00    -0.330 NA
ATOM     14  H   UNL     1       5.445   3.895   1.372  1.00  0.00     0.118 HD
ATOM     15  H   UNL     1       6.283   5.262   1.590  1.00  0.00     0.118 HD
ENDBRANCH  12  13
ENDBRANCH   1  12
TORSDOF 5
ENDMDL
MODEL 5
REMARK VINA RESULT:    -4.038      1.770      2.691
REMARK INTER + INTRA:          -6.494
REMARK INTER:                  -5.529
REMARK INTRA:                  -0.965
REMARK CONF_INDEPENDENT:        1.492
REMARK UNBOUND:                -0.965
REMARK SMILES NCCc1ccc(O)c(O)c1
REMARK SMILES IDX 3 1 4 2 11 3 5 4 9 5 6 6 7 7 10 8 8 10 2 12 1 13
REMARK H PARENT 10 9 8 11 1 14 1 15
REMARK Flexibility Score: inf
ROOT
ATOM      1  C   UNL     1      -0.463   4.531   2.594  1.00  0.00     0.050 C 
ENDROOT
BRANCH   1   2
ATOM      2  C   UNL     1       0.619   5.122   1.729  1.00  0.00    -0.043 A 
ATOM      3  C   UNL     1       0.285   5.806   0.577  1.00  0.00     0.054 A 
ATOM      4  C   UNL     1       1.946   4.975   2.088  1.00  0.00     0.008 A 
ATOM      5  C   UNL     1       1.279   6.354  -0.218  1.00  0.00     0.157 A 
ATOM      6  C   UNL     1       2.943   5.514   1.298  1.00  0.00     0.050 A 
ATOM      7  C   UNL     1       2.614   6.205   0.143  1.00  0.00     0.157 A 
BRANCH   5   8
ATOM      8  O   UNL     1       0.951   7.030  -1.351  1.00  0.00    -0.504 OA
ATOM      9  H   UNL     1       1.780   7.298  -1.768  1.00  0.00     0.293 HD
ENDBRANCH   5   8
BRANCH   7  10
ATOM     10  O   UNL     1       3.594   6.737  -0.637  1.00  0.00    -0.504 OA
ATOM     11  H   UNL     1       4.228   6.030  -0.809  1.00  0.00     0.293 HD
ENDBRANCH   7  10
ENDBRANCH   1   2
BRANCH   1  12
ATOM     12  C   UNL     1      -0.136   3.068   2.894  1.00  0.00     0.082 C 
BRANCH  12  13
ATOM     13  N   UNL     1       0.602   2.980   4.161  1.00  0.00    -0.330 NA
ATOM     14  H   UNL     1       0.073   3.503   4.843  1.00  0.00     0.118 HD
ATOM     15  H   UNL     1       0.569   2.014   4.450  1.00  0.00     0.118 HD
ENDBRANCH  12  13
ENDBRANCH   1  12
TORSDOF 5
ENDMDL
MODEL 6
REMARK VINA RESULT:    -4.000      3.599      4.825
REMARK INTER + INTRA:          -6.821
REMARK INTER:                  -5.492
REMARK INTRA:                  -1.329
REMARK CONF_INDEPENDENT:        1.492
REMARK UNBOUND:                -1.329
REMARK SMILES NCCc1ccc(O)c(O)c1
REMARK SMILES IDX 3 1 4 2 11 3 5 4 9 5 6 6 7 7 10 8 8 10 2 12 1 13
REMARK H PARENT 10 9 8 11 1 14 1 15
REMARK Flexibility Score: inf
ROOT
ATOM      1  C   UNL     1       2.100   5.608  -0.122  1.00  0.00     0.050 C 
ENDROOT
BRANCH   1   2
ATOM      2  C   UNL     1       1.397   4.841   0.967  1.00  0.00    -0.043 A 
ATOM      3  C   UNL     1       0.017   4.804   1.002  1.00  0.00     0.054 A 
ATOM      4  C   UNL     1       2.134   4.179   1.931  1.00  0.00     0.008 A 
ATOM      5  C   UNL     1      -0.632   4.094   2.000  1.00  0.00     0.157 A 
ATOM      6  C   UNL     1       1.494   3.474   2.932  1.00  0.00     0.050 A 
ATOM      7  C   UNL     1       0.109   3.429   2.970  1.00  0.00     0.157 A 
BRANCH   5   8
ATOM      8  O   UNL     1      -1.991   4.054   2.034  1.00  0.00    -0.504 OA
ATOM      9  H   UNL     1      -2.235   3.346   2.645  1.00  0.00     0.293 HD
ENDBRANCH   5   8
BRANCH   7  10
ATOM     10  O   UNL     1      -0.523   2.737   3.956  1.00  0.00    -0.504 OA
ATOM     11  H   UNL     1      -1.445   2.644   3.685  1.00  0.00     0.293 HD
ENDBRANCH   7  10
ENDBRANCH   1   2
BRANCH   1  12
ATOM     12  C   UNL     1       2.714   6.880   0.464  1.00  0.00     0.082 C 
BRANCH  12  13
ATOM     13  N   UNL     1       4.043   7.099  -0.121  1.00  0.00    -0.330 NA
ATOM     14  H   UNL     1       4.717   6.792   0.564  1.00  0.00     0.118 HD
ATOM     15  H   UNL     1       4.122   6.469  -0.906  1.00  0.00     0.118 HD
ENDBRANCH  12  13
ENDBRANCH   1  12
TORSDOF 5
ENDMDL
MODEL 7
REMARK VINA RESULT:    -3.463      1.373      2.658
REMARK INTER + INTRA:          -6.333
REMARK INTER:                  -4.954
REMARK INTRA:                  -1.378
REMARK CONF_INDEPENDENT:        1.492
REMARK UNBOUND:                -1.378
REMARK SMILES NCCc1ccc(O)c(O)c1
REMARK SMILES IDX 3 1 4 2 11 3 5 4 9 5 6 6 7 7 10 8 8 10 2 12 1 13
REMARK H PARENT 10 9 8 11 1 14 1 15
REMARK Flexibility Score: inf
ROOT
ATOM      1  C   UNL     1      -2.245   4.092   2.150  1.00  0.00     0.050 C 
ENDROOT
BRANCH   1   2
ATOM      2  C   UNL     1      -0.751   4.261   2.245  1.00  0.00    -0.043 A 
ATOM      3  C   UNL     1      -0.161   5.433   1.813  1.00  0.00     0.054 A 
ATOM      4  C   UNL     1       0.027   3.242   2.762  1.00  0.00     0.008 A 
ATOM      5  C   UNL     1       1.212   5.593   1.904  1.00  0.00     0.157 A 
ATOM      6  C   UNL     1       1.398   3.392   2.851  1.00  0.00     0.050 A 
ATOM      7  C   UNL     1       1.995   4.567   2.423  1.00  0.00     0.157 A 
BRANCH   5   8
ATOM      8  O   UNL     1       1.794   6.747   1.482  1.00  0.00    -0.504 OA
ATOM      9  H   UNL     1       2.735   6.680   1.690  1.00  0.00     0.293 HD
ENDBRANCH   5   8
BRANCH   7  10
ATOM     10  O   UNL     1       3.345   4.717   2.509  1.00  0.00    -0.504 OA
ATOM     11  H   UNL     1       3.566   5.530   2.038  1.00  0.00     0.293 HD
ENDBRANCH   7  10
ENDBRANCH   1   2
BRANCH   1  12
ATOM     12  C   UNL     1      -2.580   3.165   0.980  1.00  0.00     0.082 C 
BRANCH  12  13
ATOM     13  N   UNL     1      -2.215   1.786   1.327  1.00  0.00    -0.330 NA
ATOM     14  H   UNL     1      -2.023   1.776   2.317  1.00  0.00     0.118 HD
ATOM     15  H   UNL     1      -3.042   1.224   1.188  1.00  0.00     0.118 HD
ENDBRANCH  12  13
ENDBRANCH   1  12
TORSDOF 5
ENDMDL
MODEL 8
REMARK VINA RESULT:    -3.446      3.616      4.410
REMARK INTER + INTRA:          -6.156
REMARK INTER:                  -4.938
REMARK INTRA:                  -1.218
REMARK CONF_INDEPENDENT:        1.492
REMARK UNBOUND:                -1.218
REMARK SMILES NCCc1ccc(O)c(O)c1
REMARK SMILES IDX 3 1 4 2 11 3 5 4 9 5 6 6 7 7 10 8 8 10 2 12 1 13
REMARK H PARENT 10 9 8 11 1 14 1 15
REMARK Flexibility Score: inf
ROOT
ATOM      1  C   UNL     1       3.256   5.452   2.452  1.00  0.00     0.050 C 
ENDROOT
BRANCH   1   2
ATOM      2  C   UNL     1       2.175   5.373   1.407  1.00  0.00    -0.043 A 
ATOM      3  C   UNL     1       0.961   4.789   1.714  1.00  0.00     0.054 A 
ATOM      4  C   UNL     1       2.400   5.880   0.141  1.00  0.00     0.008 A 
ATOM      5  C   UNL     1      -0.037   4.719   0.755  1.00  0.00     0.157 A 
ATOM      6  C   UNL     1       1.412   5.809  -0.822  1.00  0.00     0.050 A 
ATOM      7  C   UNL     1       0.190   5.229  -0.519  1.00  0.00     0.157 A 
BRANCH   5   8
ATOM      8  O   UNL     1      -1.234   4.148   1.057  1.00  0.00    -0.504 OA
ATOM      9  H   UNL     1      -1.542   3.704   0.256  1.00  0.00     0.293 HD
ENDBRANCH   5   8
BRANCH   7  10
ATOM     10  O   UNL     1      -0.784   5.157  -1.466  1.00  0.00    -0.504 OA
ATOM     11  H   UNL     1      -1.447   4.537  -1.138  1.00  0.00     0.293 HD
ENDBRANCH   7  10
ENDBRANCH   1   2
BRANCH   1  12
ATOM     12  C   UNL     1       4.340   4.418   2.146  1.00  0.00     0.082 C 
BRANCH  12  13
ATOM     13  N   UNL     1       5.648   5.082   2.079  1.00  0.00    -0.330 NA
ATOM     14  H   UNL     1       6.275   4.445   1.611  1.00  0.00     0.118 HD
ATOM     15  H   UNL     1       5.538   5.879   1.469  1.00  0.00     0.118 HD
ENDBRANCH  12  13
ENDBRANCH   1  12
TORSDOF 5
ENDMDL
MODEL 9
REMARK VINA RESULT:    -3.402      5.415      6.675
REMARK INTER + INTRA:          -6.249
REMARK INTER:                  -4.893
REMARK INTRA:                  -1.356
REMARK CONF_INDEPENDENT:        1.492
REMARK UNBOUND:                -1.356
REMARK SMILES NCCc1ccc(O)c(O)c1
REMARK SMILES IDX 3 1 4 2 11 3 5 4 9 5 6 6 7 7 10 8 8 10 2 12 1 13
REMARK H PARENT 10 9 8 11 1 14 1 15
REMARK Flexibility Score: inf
ROOT
ATOM      1  C   UNL     1      -5.489   4.574   4.146  1.00  0.00     0.050 C 
ENDROOT
BRANCH   1   2
ATOM      2  C   UNL     1      -4.882   3.985   2.899  1.00  0.00    -0.043 A 
ATOM      3  C   UNL     1      -3.663   4.446   2.442  1.00  0.00     0.054 A 
ATOM      4  C   UNL     1      -5.548   2.987   2.213  1.00  0.00     0.008 A 
ATOM      5  C   UNL     1      -3.101   3.902   1.298  1.00  0.00     0.157 A 
ATOM      6  C   UNL     1      -4.996   2.444   1.069  1.00  0.00     0.050 A 
ATOM      7  C   UNL     1      -3.771   2.899   0.607  1.00  0.00     0.157 A 
BRANCH   5   8
ATOM      8  O   UNL     1      -1.899   4.353   0.849  1.00  0.00    -0.504 OA
ATOM      9  H   UNL     1      -1.581   3.707   0.205  1.00  0.00     0.293 HD
ENDBRANCH   5   8
BRANCH   7  10
ATOM     10  O   UNL     1      -3.226   2.366  -0.519  1.00  0.00    -0.504 OA
ATOM     11  H   UNL     1      -2.379   2.808  -0.657  1.00  0.00     0.293 HD
ENDBRANCH   7  10
ENDBRANCH   1   2
BRANCH   1  12
ATOM     12  C   UNL     1      -5.752   3.461   5.161  1.00  0.00     0.082 C 
BRANCH  12  13
ATOM     13  N   UNL     1      -5.405   3.932   6.507  1.00  0.00    -0.330 NA
ATOM     14  H   UNL     1      -6.274   4.089   6.994  1.00  0.00     0.118 HD
ATOM     15  H   UNL     1      -4.947   3.164   6.975  1.00  0.00     0.118 HD
ENDBRANCH  12  13
ENDBRANCH   1  12
TORSDOF 5
ENDMDL
