REMARK SMILES NCCc1ccc(O)c(O)c1
REMARK SMILES IDX 3 1 4 2 11 3 5 4 9 5 6 6 7 7 10 8 8 10 2 12 1 13
REMARK H PARENT 10 9 8 11 1 14 1 15
REMARK Flexibility Score: inf
ROOT
ATOM      1  C   UNL     1       0.038  -0.707   2.170  1.00  0.00     0.050 C 
ENDROOT
BRANCH   1   2
ATOM      2  C   UNL     1       0.189  -0.411   0.701  1.00  0.00    -0.043 A 
ATOM      3  C   UNL     1      -0.932  -0.299  -0.098  1.00  0.00     0.054 A 
ATOM      4  C   UNL     1       1.449  -0.256   0.154  1.00  0.00     0.008 A 
ATOM      5  C   UNL     1      -0.796  -0.022  -1.449  1.00  0.00     0.157 A 
ATOM      6  C   UNL     1       1.593   0.015  -1.193  1.00  0.00     0.050 A 
ATOM      7  C   UNL     1       0.472   0.133  -1.999  1.00  0.00     0.157 A 
BRANCH   5   8
ATOM      8  O   UNL     1      -1.899   0.092  -2.236  1.00  0.00    -0.504 OA
ATOM      9  H   UNL     1      -2.092  -0.791  -2.577  1.00  0.00     0.293 HD
ENDBRANCH   5   8
BRANCH   7  10
ATOM     10  O   UNL     1       0.611   0.399  -3.326  1.00  0.00    -0.504 OA
ATOM     11  H   UNL     1       0.673  -0.452  -3.777  1.00  0.00     0.293 HD
ENDBRANCH   7  10
ENDBRANCH   1   2
BRANCH   1  12
ATOM     12  C   UNL     1      -0.063   0.606   2.948  1.00  0.00     0.082 C 
BRANCH  12  13
ATOM     13  N   UNL     1      -0.210   0.318   4.380  1.00  0.00    -0.330 NA
ATOM     14  H   UNL     1      -0.274   1.208   4.851  1.00  0.00     0.118 HD
ATOM     15  H   UNL     1      -1.105  -0.134   4.495  1.00  0.00     0.118 HD
ENDBRANCH  12  13
ENDBRANCH   1  12
TORSDOF 5
